Proyecto0
*SPICE Netlist generated by Advanced Sim server on 17/11/2024 21:22:13
.options MixedSimGenerated

*Schematic Netlist:


*Selected Circuit Analyses:
.TRAN 0.1u 5u 0 0.1u

.END
